Info: SIMULATION PARAMETERS:
Info: TIMESTEP               1
Info: NUMBER OF STEPS        0
Info: STEPS PER CYCLE        10
Info: PERIODIC CELL BASIS 1  71.146 0 0
Info: PERIODIC CELL BASIS 2  0 73.128 0
Info: PERIODIC CELL BASIS 3  0 0 85.939
Info: PERIODIC CELL CENTER   37.341 36.564 42.9695
Info: WRAPPING WATERS AROUND PERIODIC BOUNDARIES ON OUTPUT.
Info: WRAPPING ALL CLUSTERS AROUND PERIODIC BOUNDARIES ON OUTPUT.
Info: FIRST LDB TIMESTEP     50
Info: LAST LDB TIMESTEP     -1
Info: HOM BACKGROUND SCALING 1
Info: PME BACKGROUND SCALING 1
Info: MIN ATOMS PER PATCH    40
Info: INITIAL TEMPERATURE    50
Info: CENTER OF MASS MOVING INITIALLY? NO
Info: DIELECTRIC             1
Info: EXCLUDE                SCALED ONE-FOUR
Info: 1-4 ELECTROSTATICS SCALED BY 0.833333
Info: MODIFIED 1-4 VDW PARAMETERS WILL BE USED
Info: DCD FILENAME           ../equilibration/eq1.dcd
Info: DCD FREQUENCY          5000
Info: DCD FIRST STEP         5000
Info: DCD FILE WILL CONTAIN UNIT CELL DATA
Info: XST FILENAME           ../equilibration/eq1.xst
Info: XST FREQUENCY          5000
Info: NO VELOCITY DCD OUTPUT
Info: NO FORCE DCD OUTPUT
Info: OUTPUT FILENAME        ../equilibration/eq1
Info: BINARY OUTPUT FILES WILL BE USED
Info: RESTART FILENAME       ../equilibration/eq1
Info: RESTART FREQUENCY      500000
Info: BINARY RESTART FILES WILL BE USED
Info: SWITCHING ACTIVE
Info: SWITCHING ON           8
Info: SWITCHING OFF          10
Info: PAIRLIST DISTANCE      11.5
Info: PAIRLIST SHRINK RATE   0.01
Info: PAIRLIST GROW RATE     0.01
Info: PAIRLIST TRIGGER       0.3
Info: PAIRLISTS PER CYCLE    2
Info: PAIRLISTS ENABLED
Info: MARGIN                 0
Info: HYDROGEN GROUP CUTOFF  2.5
Info: PATCH DIMENSION        14
Info: ENERGY OUTPUT STEPS    1000
Info: CROSSTERM ENERGY INCLUDED IN DIHEDRAL
Info: TIMING OUTPUT STEPS    10000
Info: PRESSURE OUTPUT STEPS  1000
Info: HARMONIC CONSTRAINTS ACTIVE
Info: HARMONIC CONS EXP      2
Info: VELOCITY REASSIGNMENT FREQ  100
Info: VELOCITY REASSIGNMENT TEMP  50
Info: VELOCITY REASSIGNMENT INCR  1
Info: VELOCITY REASSIGNMENT HOLD  300
Info: PARTICLE MESH EWALD (PME) ACTIVE
Info: PME TOLERANCE               1e-06
Info: PME EWALD COEFFICIENT       0.312341
Info: PME INTERPOLATION ORDER     4
Info: PME GRID DIMENSIONS         72 80 88
Info: PME MAXIMUM GRID SPACING    1
Info: FULL ELECTROSTATIC EVALUATION FREQUENCY      2
Info: USING VERLET I (r-RESPA) MTS SCHEME.
Info: C1 SPLITTING OF LONG RANGE ELECTROSTATICS
Info: PLACING ATOMS IN PATCHES BY HYDROGEN GROUPS
Info: RIGID BONDS TO HYDROGEN : ALL
Info:         ERROR TOLERANCE : 1e-05
Info:          MAX ITERATIONS : 100
Info: RIGID WATER USING SETTLE ALGORITHM
Info: RANDOM NUMBER SEED     1540207280
Info: USE HYDROGEN BONDS?    NO
Info: Using AMBER format force field!
Info: AMBER PARM FILE        ../../../build/1bna_solv.prmtop
Info: AMBER COORDINATE FILE  ../../../build/1bna_solv.inpcrd
Info: Exclusions in PARM file will be ignored!
Info: SCNB (VDW SCALING)     2
Info: USING ARITHMETIC MEAN TO COMBINE L-J SIGMA PARAMETERS
Info: BINARY COORDINATES     ../equilibration/eq0.coor
Info: SUMMARY OF PARAMETERS:
Info: 52 BONDS
Info: 103 ANGLES
Info: 65 DIHEDRAL
Info: 0 IMPROPER
Info: 0 CROSSTERM
Info: 0 VDW
Info: 171 VDW_PAIRS
Info: 0 NBTHOLE_PAIRS
Info: STRUCTURE SUMMARY:
Info: 41820 ATOMS
Info: 41856 BONDS
Info: 1476 ANGLES
Info: 2856 DIHEDRALS
Info: 0 IMPROPERS
Info: 0 CROSSTERMS
Info: 0 EXCLUSIONS
Info: 780 CONSTRAINTS
Info: 41312 RIGID BONDS
Info: 84148 DEGREES OF FREEDOM
Info: 14188 HYDROGEN GROUPS
Info: 4 ATOMS IN LARGEST HYDROGEN GROUP
Info: 14188 MIGRATION GROUPS
Info: 4 ATOMS IN LARGEST MIGRATION GROUP
Info: TOTAL MASS = 254235 amu
Info: TOTAL CHARGE = -7.75792e-07 e
Info: MASS DENSITY = 0.944214 g/cm^3
Info: ATOM DENSITY = 0.0935319 atoms/A^3
Info: ADDED 45236 IMPLICIT EXCLUSIONS
Info: NONBONDED TABLE R-SQUARED SPACING: 0.0625
Info: NONBONDED TABLE SIZE: 705 POINTS
Info: REMOVING COM VELOCITY -0.0285851 0.0192255 -0.0216863
TCL: Running for 30000 steps
ETITLE: TS BOND ANGLE DIHED IMPRP ELECT VDW BOUNDARY MISC KINETIC TOTAL TEMP POTENTIAL TOTAL3 TEMPAVG PRESSURE GPRESSURE VOLUME PRESSAVG GPRESSAVG
ENERGY: 0 36.8945 133.2552 517.1050 0.0000 -199387.1779 28471.0102 509.5132 0.0000 4183.9042 -165535.4956 50.0413 -169719.3998 -165535.4166 50.0413 -4373.3175 -4308.9129 447120.3945 -4373.3175 -4308.9129
ENERGY: 6000 88.7652 210.3955 563.5212 0.0000 -190693.4599 27943.6383 113.4306 0.0000 9178.1883 -152595.5209 109.7750 -161773.7092 -152537.7263 103.4256 -2539.3787 -2470.7501 447120.3945 -2601.5196 -2601.4840
ENERGY: 12000 142.3897 299.8012 588.6991 0.0000 -184924.5752 27041.8361 110.9210 0.0000 14029.5296 -142711.3985 167.7991 -156740.9281 -142708.1451 163.8012 -1692.9028 -1631.6180 447120.3945 -1744.5833 -1744.5383
ENERGY: 18000 164.6173 324.2088 590.9833 0.0000 -176038.9632 24922.3672 120.0844 0.0000 19143.4937 -130773.2086 228.9643 -149916.7023 -130682.3129 222.5898 -1146.7954 -1092.6159 447120.3945 -1133.4498 -1133.3899
ENERGY: 24000 179.8173 352.9653 605.7148 0.0000 -161085.2044 20715.4409 136.1372 0.0000 24438.4831 -114656.6456 292.2946 -139095.1288 -114445.1497 282.2246 -765.6770 -702.4538 447120.3945 -664.8666 -664.7967
ENERGY: 30000 199.0225 387.7522 608.0896 0.0000 -156035.6498 19172.4525 126.3991 0.0000 25007.3426 -110534.5913 299.0984 -135541.9339 -110545.2694 299.7427 -710.9046 -663.1717 447120.3945 -637.0146 -637.0093
