Info: SIMULATION PARAMETERS:
Info: TIMESTEP               1
Info: NUMBER OF STEPS        0
Info: STEPS PER CYCLE        10
Info: PERIODIC CELL BASIS 1  71.146 0 0
Info: PERIODIC CELL BASIS 2  0 73.128 0
Info: PERIODIC CELL BASIS 3  0 0 85.939
Info: PERIODIC CELL CENTER   37.341 36.564 42.9695
Info: WRAPPING WATERS AROUND PERIODIC BOUNDARIES ON OUTPUT.
Info: WRAPPING ALL CLUSTERS AROUND PERIODIC BOUNDARIES ON OUTPUT.
Info: FIRST LDB TIMESTEP     50
Info: LAST LDB TIMESTEP     -1
Info: HOM BACKGROUND SCALING 1
Info: PME BACKGROUND SCALING 1
Info: MIN ATOMS PER PATCH    40
Info: VELOCITY FILE          ../equilibration/eq1.vel
Info: CENTER OF MASS MOVING INITIALLY? NO
Info: DIELECTRIC             1
Info: EXCLUDE                SCALED ONE-FOUR
Info: 1-4 ELECTROSTATICS SCALED BY 0.833333
Info: MODIFIED 1-4 VDW PARAMETERS WILL BE USED
Info: DCD FILENAME           ../equilibration/eq2.dcd
Info: DCD FREQUENCY          5000
Info: DCD FIRST STEP         5000
Info: DCD FILE WILL CONTAIN UNIT CELL DATA
Info: XST FILENAME           ../equilibration/eq2.xst
Info: XST FREQUENCY          5000
Info: NO VELOCITY DCD OUTPUT
Info: NO FORCE DCD OUTPUT
Info: OUTPUT FILENAME        ../equilibration/eq2
Info: BINARY OUTPUT FILES WILL BE USED
Info: RESTART FILENAME       ../equilibration/eq2
Info: RESTART FREQUENCY      500000
Info: BINARY RESTART FILES WILL BE USED
Info: SWITCHING ACTIVE
Info: SWITCHING ON           8
Info: SWITCHING OFF          10
Info: PAIRLIST DISTANCE      11.5
Info: PAIRLIST SHRINK RATE   0.01
Info: PAIRLIST GROW RATE     0.01
Info: PAIRLIST TRIGGER       0.3
Info: PAIRLISTS PER CYCLE    2
Info: PAIRLISTS ENABLED
Info: MARGIN                 0.42
Info: HYDROGEN GROUP CUTOFF  2.5
Info: PATCH DIMENSION        14.42
Info: ENERGY OUTPUT STEPS    1000
Info: CROSSTERM ENERGY INCLUDED IN DIHEDRAL
Info: TIMING OUTPUT STEPS    10000
Info: PRESSURE OUTPUT STEPS  1000
Info: HARMONIC CONSTRAINTS ACTIVE
Info: HARMONIC CONS EXP      2
Info: HARMONIC CONS SCALING  10
Info: LANGEVIN DYNAMICS ACTIVE
Info: LANGEVIN TEMPERATURE   300
Info: LANGEVIN USING BBK INTEGRATOR
Info: LANGEVIN DAMPING COEFFICIENT IS 5 INVERSE PS
Info: LANGEVIN DYNAMICS NOT APPLIED TO HYDROGENS
Info: BERENDSEN PRESSURE COUPLING ACTIVE
Info:     TARGET PRESSURE IS 1.01325 BAR
Info:     COMPRESSIBILITY ESTIMATE IS 4.57e-05 BAR^(-1)
Info:     RELAXATION TIME IS 100 FS
Info:     APPLIED EVERY 2 STEPS
Info:     PRESSURE CONTROL IS GROUP-BASED
Info:       CELL FLUCTUATION IS ISOTROPIC
Info: PARTICLE MESH EWALD (PME) ACTIVE
Info: PME TOLERANCE               1e-06
Info: PME EWALD COEFFICIENT       0.312341
Info: PME INTERPOLATION ORDER     4
Info: PME GRID DIMENSIONS         72 80 88
Info: PME MAXIMUM GRID SPACING    1
Info: FULL ELECTROSTATIC EVALUATION FREQUENCY      2
Info: USING VERLET I (r-RESPA) MTS SCHEME.
Info: C1 SPLITTING OF LONG RANGE ELECTROSTATICS
Info: PLACING ATOMS IN PATCHES BY HYDROGEN GROUPS
Info: RIGID BONDS TO HYDROGEN : ALL
Info:         ERROR TOLERANCE : 1e-05
Info:          MAX ITERATIONS : 100
Info: RIGID WATER USING SETTLE ALGORITHM
Info: RANDOM NUMBER SEED     1540207430
Info: USE HYDROGEN BONDS?    NO
Info: Using AMBER format force field!
Info: AMBER PARM FILE        ../../../build/1bna_solv.prmtop
Info: AMBER COORDINATE FILE  ../../../build/1bna_solv.inpcrd
Info: Exclusions in PARM file will be ignored!
Info: SCNB (VDW SCALING)     2
Info: USING ARITHMETIC MEAN TO COMBINE L-J SIGMA PARAMETERS
Info: BINARY COORDINATES     ../equilibration/eq1.coor
Info: SUMMARY OF PARAMETERS:
Info: 52 BONDS
Info: 103 ANGLES
Info: 65 DIHEDRAL
Info: 0 IMPROPER
Info: 0 CROSSTERM
Info: 0 VDW
Info: 171 VDW_PAIRS
Info: 0 NBTHOLE_PAIRS
Info: STRUCTURE SUMMARY:
Info: 41820 ATOMS
Info: 41856 BONDS
Info: 1476 ANGLES
Info: 2856 DIHEDRALS
Info: 0 IMPROPERS
Info: 0 CROSSTERMS
Info: 0 EXCLUSIONS
Info: 780 CONSTRAINTS
Info: 41312 RIGID BONDS
Info: 84148 DEGREES OF FREEDOM
Info: 14188 HYDROGEN GROUPS
Info: 4 ATOMS IN LARGEST HYDROGEN GROUP
Info: 14188 MIGRATION GROUPS
Info: 4 ATOMS IN LARGEST MIGRATION GROUP
Info: TOTAL MASS = 254235 amu
Info: TOTAL CHARGE = -7.75792e-07 e
Info: MASS DENSITY = 0.944214 g/cm^3
Info: ATOM DENSITY = 0.0935319 atoms/A^3
Info: ADDED 45236 IMPLICIT EXCLUSIONS
Info: NONBONDED TABLE R-SQUARED SPACING: 0.0625
Info: NONBONDED TABLE SIZE: 705 POINTS
Info: REMOVING COM VELOCITY 0.0182598 0.0273987 -0.00271374
TCL: Running for 50000 steps
ETITLE: TS BOND ANGLE DIHED IMPRP ELECT VDW BOUNDARY MISC KINETIC TOTAL TEMP POTENTIAL TOTAL3 TEMPAVG PRESSURE GPRESSURE VOLUME PRESSAVG GPRESSAVG
ENERGY: 0 199.0225 387.7522 608.0896 0.0000 -156035.6498 19172.4525 1263.9912 0.0000 25007.0111 -109397.3308 299.0945 -134404.3419 -109382.6343 299.0945 -845.3720 -795.5164 447120.3945 -845.3720 -795.5164
ENERGY: 10000 175.6591 336.5253 616.0517 0.0000 -158200.8657 20055.0568 251.1363 0.0000 25030.0908 -111736.3457 299.3705 -136766.4365 -111728.5327 300.1235 -116.7754 -69.6172 426436.5442 1.1903 1.4788
ENERGY: 20000 182.8445 346.5045 616.2043 0.0000 -158844.2870 20244.6729 240.4867 0.0000 25031.4908 -112182.0832 299.3873 -137213.5740 -112174.3496 299.2306 -31.4959 26.0519 427234.8070 1.2624 0.9637
ENERGY: 30000 183.1354 333.9453 625.5145 0.0000 -158537.3727 20128.4312 245.8105 0.0000 24997.3739 -112023.1619 298.9792 -137020.5358 -112006.3426 299.2099 -3.4490 57.1339 425581.3313 3.0931 3.1030
ENERGY: 40000 171.3999 364.1764 617.4753 0.0000 -158993.2771 20214.7804 259.0529 0.0000 25078.9062 -112287.4861 299.9544 -137366.3923 -112267.4954 299.5274 -57.4988 3.4899 423818.8487 -2.8626 -2.9659
ENERGY: 50000 160.9077 363.8992 618.0379 0.0000 -159098.7455 20225.5202 238.4816 0.0000 25055.6550 -112436.2439 299.6763 -137491.8989 -112424.0343 299.0674 -84.6058 -34.8091 424854.9542 5.0192 5.1580
TCL: Setting parameter constraintScaling to 5.0
TCL: Running for 50000 steps
ETITLE: TS BOND ANGLE DIHED IMPRP ELECT VDW BOUNDARY MISC KINETIC TOTAL TEMP POTENTIAL TOTAL3 TEMPAVG PRESSURE GPRESSURE VOLUME PRESSAVG GPRESSAVG
ENERGY: 50000 160.9077 363.8992 618.0379 0.0000 -159098.7454 20225.5202 119.2408 0.0000 25053.7308 -112557.4089 299.6532 -137611.1397 -112545.1250 299.6532 1.8244 55.2987 424854.9542 1.8244 55.2987
ENERGY: 60000 175.8316 367.2951 618.3249 0.0000 -159010.0420 20089.2396 189.6629 0.0000 24999.2084 -112570.4795 299.0011 -137569.6879 -112553.1500 299.3456 -64.5820 -9.1335 424046.7107 2.4400 2.5652
ENERGY: 70000 191.2904 376.9358 610.5172 0.0000 -158899.0679 20116.3844 199.6728 0.0000 25080.0738 -112324.1933 299.9683 -137404.2671 -112305.9124 299.9959 -86.4657 -35.8330 425200.0141 5.2075 5.0113
ENERGY: 80000 182.9622 346.2435 622.0572 0.0000 -158479.7158 19834.3519 173.8300 0.0000 25054.9205 -112265.3505 299.6675 -137320.2710 -112256.1141 299.2539 -79.7401 -25.0121 425113.4870 2.9369 2.7549
ENERGY: 90000 168.8068 364.0229 620.0806 0.0000 -158557.7969 20021.8725 189.0998 0.0000 24943.0541 -112250.8601 298.3295 -137193.9143 -112235.4661 300.0906 -77.4534 -18.7911 425554.2142 -4.1397 -4.3458
ENERGY: 100000 175.7695 363.5094 615.8471 0.0000 -159121.8173 20113.5853 193.8954 0.0000 25001.2068 -112658.0038 299.0250 -137659.2105 -112645.1516 298.7318 21.8142 64.4840 424487.2328 -2.2256 -2.2185
TCL: Setting parameter constraintScaling to 2.5
TCL: Running for 50000 steps
ETITLE: TS BOND ANGLE DIHED IMPRP ELECT VDW BOUNDARY MISC KINETIC TOTAL TEMP POTENTIAL TOTAL3 TEMPAVG PRESSURE GPRESSURE VOLUME PRESSAVG GPRESSAVG
ENERGY: 100000 175.7695 363.5094 615.8471 0.0000 -159121.8173 20113.5853 96.9477 0.0000 24999.3116 -112756.8467 299.0024 -137756.1582 -112744.0385 299.0024 45.5759 97.2768 424487.2328 45.5759 97.2768
ENERGY: 110000 206.3851 349.6831 602.2375 0.0000 -159197.5491 20155.5041 154.3409 0.0000 25194.1187 -112535.2797 301.3323 -137729.3984 -112525.6014 298.5747 -18.0660 46.7415 424738.7945 -3.0075 -2.7481
ENERGY: 120000 185.0723 352.5214 620.4084 0.0000 -158830.7003 20167.5939 149.6288 0.0000 25096.0072 -112259.4684 300.1589 -137355.4756 -112253.8332 300.3030 8.1701 61.6487 425107.4346 1.8362 1.6177
ENERGY: 130000 184.2954 374.5054 613.9687 0.0000 -158678.9519 19951.2230 164.4059 0.0000 25052.3995 -112338.1540 299.6373 -137390.5534 -112325.4547 300.0107 -109.3882 -58.9674 424300.5186 -0.2693 -0.1917
ENERGY: 140000 200.0613 350.7112 621.5361 0.0000 -158531.6850 19934.9888 134.4489 0.0000 24972.9445 -112316.9942 298.6870 -137289.9386 -112305.0526 300.4934 -40.9076 0.8425 424138.6180 -7.8052 -7.5136
ENERGY: 150000 184.0501 367.6010 610.5924 0.0000 -158939.2891 20111.9760 155.3932 0.0000 25193.3404 -112316.3358 301.3230 -137509.6762 -112310.3000 299.7848 -3.9549 45.8688 424413.1785 4.2363 4.4394
TCL: Setting parameter constraintScaling to 1.25
TCL: Running for 50000 steps
ETITLE: TS BOND ANGLE DIHED IMPRP ELECT VDW BOUNDARY MISC KINETIC TOTAL TEMP POTENTIAL TOTAL3 TEMPAVG PRESSURE GPRESSURE VOLUME PRESSAVG GPRESSAVG
ENERGY: 150000 184.0501 367.6010 610.5924 0.0000 -158939.2891 20111.9760 77.6966 0.0000 25191.4401 -112395.9327 301.3003 -137587.3728 -112382.4941 301.3003 20.5176 71.9932 424413.1785 20.5176 71.9932
ENERGY: 160000 204.7631 387.6782 613.7153 0.0000 -158841.7600 20137.5282 112.7652 0.0000 25276.3897 -112108.9202 302.3163 -137385.3100 -112101.7521 300.2493 27.3104 75.5498 426103.4509 11.2033 11.4400
ENERGY: 170000 189.3815 374.5151 617.0199 0.0000 -158759.0723 20015.5837 109.2015 0.0000 25063.8162 -112389.5543 299.7739 -137453.3706 -112373.0830 298.8200 -72.2540 -17.7384 424993.4446 -0.2907 -0.4236
ENERGY: 180000 187.3558 362.7998 615.5088 0.0000 -158678.4050 20099.1738 120.7072 0.0000 24903.9972 -112388.8623 297.8624 -137292.8596 -112379.8969 300.1020 -43.0670 17.5413 424846.5823 3.0397 3.2234
ENERGY: 190000 206.2746 359.8100 606.3341 0.0000 -159243.1866 20279.1247 106.7948 0.0000 25056.4039 -112628.4444 299.6852 -137684.8483 -112609.2714 300.0058 -7.3418 57.8731 424285.9065 -3.1503 -3.1477
ENERGY: 200000 180.0369 350.9849 618.3222 0.0000 -158337.8753 20006.1491 114.7172 0.0000 25268.7964 -111798.8686 302.2255 -137067.6650 -111784.4402 301.1214 -30.6926 16.5968 425503.5660 5.7342 5.7588
TCL: Setting parameter constraintScaling to 0.625
TCL: Running for 50000 steps
ETITLE: TS BOND ANGLE DIHED IMPRP ELECT VDW BOUNDARY MISC KINETIC TOTAL TEMP POTENTIAL TOTAL3 TEMPAVG PRESSURE GPRESSURE VOLUME PRESSAVG GPRESSAVG
ENERGY: 200000 180.0369 350.9849 618.3222 0.0000 -158337.8753 20006.1491 57.3586 0.0000 25266.8948 -111858.1288 302.2028 -137125.0236 -111847.5069 302.2028 -7.8182 43.8167 425503.5660 -7.8182 43.8167
ENERGY: 210000 196.5097 391.3969 596.0437 0.0000 -158318.2168 19849.7786 86.0984 0.0000 25089.9399 -112108.4495 300.0863 -137198.3894 -112098.0576 299.8731 -64.1694 -12.3411 424524.1864 0.7140 0.5126
ENERGY: 220000 195.3002 384.9874 617.4402 0.0000 -158476.0461 19940.9957 81.0913 0.0000 25072.5151 -112183.7162 299.8779 -137256.2314 -112162.8008 301.3428 25.0402 79.0002 424707.8583 -3.4510 -3.5400
ENERGY: 230000 212.3401 379.0116 604.3882 0.0000 -158764.5075 20112.0824 90.1501 0.0000 25057.9376 -112308.5974 299.7036 -137366.5351 -112289.4690 300.6229 10.8181 55.2077 425133.1159 1.6434 1.7245
ENERGY: 240000 198.9399 375.8287 608.7551 0.0000 -158910.7737 20063.4205 86.9943 0.0000 25252.0911 -112324.7441 302.0257 -137576.8353 -112314.8772 301.1714 -114.0355 -53.8386 425868.2113 6.4018 6.4845
ENERGY: 250000 187.6541 362.2971 613.9747 0.0000 -158619.8335 19935.6415 86.7238 0.0000 25182.3743 -112251.1679 301.1919 -137433.5421 -112237.3746 301.2019 -138.3734 -93.4098 425930.1754 3.5008 3.4078
TCL: Setting parameter constraintScaling to 0.3125
TCL: Running for 50000 steps
ETITLE: TS BOND ANGLE DIHED IMPRP ELECT VDW BOUNDARY MISC KINETIC TOTAL TEMP POTENTIAL TOTAL3 TEMPAVG PRESSURE GPRESSURE VOLUME PRESSAVG GPRESSAVG
ENERGY: 250000 187.6541 362.2971 613.9747 0.0000 -158619.8335 19935.6415 43.3619 0.0000 25180.4924 -112296.4117 301.1694 -137476.9040 -112282.6668 301.1694 -128.3440 -76.7624 425930.1754 -128.3440 -76.7624
ENERGY: 260000 179.4872 383.2044 605.1245 0.0000 -158971.5286 20159.8561 67.2019 0.0000 25168.3990 -112408.2555 301.0247 -137576.6545 -112397.9567 298.6052 -97.7351 -46.4992 426645.0522 13.0556 13.0764
ENERGY: 270000 210.4324 383.8703 594.9375 0.0000 -159009.8774 19959.3786 67.7926 0.0000 25176.9401 -112616.5259 301.1269 -137793.4660 -112592.8428 299.4016 -226.7179 -172.1856 424133.8835 -3.5758 -3.9068
ENERGY: 280000 179.8236 367.4384 594.7728 0.0000 -158716.6291 20043.5254 64.4434 0.0000 25045.2728 -112421.3528 299.5521 -137466.6257 -112417.0093 299.8168 -99.1040 -33.5728 424905.2323 -7.0540 -7.0064
ENERGY: 290000 199.3986 385.3514 586.8384 0.0000 -158669.6108 20073.1651 69.2871 0.0000 25011.9128 -112343.6574 299.1531 -137355.5703 -112323.2622 299.9013 -74.9662 -21.2730 424323.7211 -0.9992 -0.7515
ENERGY: 300000 207.8271 386.7436 606.8516 0.0000 -159210.8068 20242.6859 71.0667 0.0000 24932.1595 -112763.4724 298.1992 -137695.6319 -112745.3351 298.2283 17.9953 63.3953 425872.1954 11.4416 11.4749
TCL: Setting parameter constraintScaling to 0.15625
TCL: Running for 50000 steps
ETITLE: TS BOND ANGLE DIHED IMPRP ELECT VDW BOUNDARY MISC KINETIC TOTAL TEMP POTENTIAL TOTAL3 TEMPAVG PRESSURE GPRESSURE VOLUME PRESSAVG GPRESSAVG
ENERGY: 300000 207.8271 386.7436 606.8516 0.0000 -159210.8068 20242.6859 35.5334 0.0000 24930.2824 -112800.8828 298.1768 -137731.1653 -112790.0465 298.1768 11.8705 64.0180 425872.1954 11.8705 64.0180
ENERGY: 310000 189.7732 405.4551 602.5025 0.0000 -158623.5670 20000.6054 42.7894 0.0000 25070.2345 -112312.2069 299.8506 -137382.4414 -112299.4337 300.9140 -27.1377 10.9904 424696.5469 -2.1242 -1.9321
ENERGY: 320000 216.8539 396.8926 603.9434 0.0000 -158906.0294 20141.8920 48.7020 0.0000 24845.6736 -112652.0718 297.1648 -137497.7454 -112641.1891 298.8100 4.1087 61.2126 424240.6181 -2.5341 -2.7030
ENERGY: 330000 213.2706 382.6517 578.8445 0.0000 -158412.3583 19981.0686 50.0800 0.0000 25131.6775 -112074.7655 300.5855 -137206.4430 -112054.4230 300.7789 8.6267 55.9594 424441.7843 1.4375 1.2668
ENERGY: 340000 183.4169 434.2696 595.2008 0.0000 -159126.4896 19990.3277 43.4693 0.0000 25033.1361 -112846.6692 299.4069 -137879.8053 -112836.5102 299.6219 -99.3735 -40.6943 423923.5223 -7.2184 -7.1969
ENERGY: 350000 188.1874 400.8601 573.3522 0.0000 -159072.4996 20045.0668 52.1855 0.0000 25316.4346 -112496.4131 302.7953 -137812.8477 -112483.4452 299.1840 -111.3835 -70.6552 426337.2158 2.9743 3.0087
TCL: Setting parameter constraintScaling to 0.078125
TCL: Running for 50000 steps
ETITLE: TS BOND ANGLE DIHED IMPRP ELECT VDW BOUNDARY MISC KINETIC TOTAL TEMP POTENTIAL TOTAL3 TEMPAVG PRESSURE GPRESSURE VOLUME PRESSAVG GPRESSAVG
ENERGY: 350000 188.1874 400.8601 573.3522 0.0000 -159072.4996 20045.0668 26.0928 0.0000 25314.5311 -112524.4094 302.7725 -137838.9405 -112512.7178 302.7725 -121.8439 -69.3999 426337.2158 -121.8439 -69.3999
ENERGY: 360000 177.4324 403.7376 596.2065 0.0000 -158296.3157 19789.0881 27.9938 0.0000 25247.3223 -112054.5350 301.9687 -137301.8573 -112037.0239 300.0287 -75.4061 -14.5713 424861.8704 3.1553 3.1847
ENERGY: 370000 201.9290 381.0769 589.9375 0.0000 -158943.1909 20111.4655 38.7674 0.0000 25127.0304 -112492.9842 300.5299 -137620.0146 -112475.9303 299.3108 -61.2178 -6.5259 424774.5756 -0.1454 -0.1904
ENERGY: 380000 195.6328 394.6408 598.0339 0.0000 -158891.3129 20018.0357 35.8348 0.0000 25314.9024 -112334.2327 302.7770 -137649.1350 -112318.4102 299.4028 -39.7901 8.3538 425080.0702 -1.1468 -1.3633
ENERGY: 390000 190.9438 386.9181 584.1675 0.0000 -158744.1992 20041.9725 38.7792 0.0000 25153.3239 -112348.0942 300.8444 -137501.4181 -112330.2555 301.3166 -44.5631 9.2776 426370.5674 7.1700 7.0370
ENERGY: 400000 185.5132 414.9604 580.1722 0.0000 -158900.9934 20038.6567 37.2881 0.0000 25182.3095 -112462.0932 301.1911 -137644.4028 -112452.0497 300.4156 -42.7847 7.6953 424289.1237 -6.2803 -6.3310
TCL: Setting parameter constraintScaling to 0.0390625
TCL: Running for 50000 steps
ETITLE: TS BOND ANGLE DIHED IMPRP ELECT VDW BOUNDARY MISC KINETIC TOTAL TEMP POTENTIAL TOTAL3 TEMPAVG PRESSURE GPRESSURE VOLUME PRESSAVG GPRESSAVG
ENERGY: 400000 185.5132 414.9604 580.1722 0.0000 -158900.9934 20038.6567 18.6441 0.0000 25180.4282 -112482.6187 301.1686 -137663.0468 -112470.8813 301.1686 -43.9982 9.5677 424289.1237 -43.9982 9.5677
ENERGY: 410000 202.3610 380.0146 577.1820 0.0000 -158803.3436 19998.0943 26.3464 0.0000 25264.3918 -112354.9535 302.1728 -137619.3453 -112350.6733 299.1055 -117.6414 -67.0382 424744.3069 -1.2901 -1.4870
ENERGY: 420000 176.2721 373.7062 583.9873 0.0000 -158015.5100 19737.7761 24.1762 0.0000 25241.0748 -111878.5173 301.8940 -137119.5921 -111854.9917 302.0722 -85.9601 -32.0259 425357.2943 2.0803 2.0605
ENERGY: 430000 187.6744 404.0071 581.6825 0.0000 -158918.4546 20180.7292 27.7919 0.0000 24858.5343 -112678.0353 297.3186 -137536.5696 -112664.2966 298.7645 -20.5153 37.0665 424961.6860 -5.1672 -4.8901
ENERGY: 440000 174.2589 403.6113 573.0110 0.0000 -158860.2338 20045.9594 31.3291 0.0000 25105.6813 -112526.3829 300.2746 -137632.0642 -112509.0620 299.1482 -0.9604 56.9816 424446.1132 1.4576 1.5717
ENERGY: 450000 201.5831 391.4800 596.4575 0.0000 -158999.4450 20118.0832 29.3981 0.0000 25011.5150 -112650.9281 299.1483 -137662.4431 -112636.4115 299.5588 -41.5598 5.3125 425257.6169 4.1529 3.8716
TCL: Setting parameter constraintScaling to 0.01953125
TCL: Running for 50000 steps
ETITLE: TS BOND ANGLE DIHED IMPRP ELECT VDW BOUNDARY MISC KINETIC TOTAL TEMP POTENTIAL TOTAL3 TEMPAVG PRESSURE GPRESSURE VOLUME PRESSAVG GPRESSAVG
ENERGY: 450000 201.5831 391.4800 596.4575 0.0000 -158999.4450 20118.0832 14.6991 0.0000 25009.6111 -112667.5311 299.1256 -137677.1421 -112654.7996 299.1256 -46.6604 8.3972 425257.6169 -46.6604 8.3972
ENERGY: 460000 192.6585 410.0335 572.7160 0.0000 -158921.3350 20054.8865 21.9422 0.0000 24964.8850 -112704.2132 298.5906 -137669.0982 -112684.7406 299.1827 -94.1272 -44.3192 425238.9368 4.7452 4.9705
ENERGY: 470000 200.0979 389.7652 573.7923 0.0000 -158895.0217 20031.6794 20.0601 0.0000 25170.2846 -112509.3422 301.0473 -137679.6268 -112498.2269 299.6586 -73.3316 -24.3431 425445.5457 1.1817 1.3530
ENERGY: 480000 214.9826 393.1816 582.1557 0.0000 -159049.6595 20118.0108 18.6677 0.0000 24794.4250 -112928.2361 296.5518 -137722.6612 -112906.1016 299.2818 -52.4313 7.3789 424531.3564 -4.2033 -3.7731
ENERGY: 490000 189.9388 414.0615 580.5393 0.0000 -158933.6500 20043.2189 16.5251 0.0000 25115.7709 -112573.5955 300.3953 -137689.3664 -112567.7120 299.6812 -128.1353 -75.9444 425599.5818 -1.8615 -1.8640
ENERGY: 500000 190.8839 393.8793 581.8755 0.0000 -158955.8184 20050.9036 21.1074 0.0000 25159.5581 -112557.6106 300.9190 -137717.1688 -112543.3746 299.7920 -24.6722 42.8495 425196.1592 -1.7943 -1.7086
TCL: Setting parameter constraintScaling to 0
TCL: Running for 500000 steps
ETITLE: TS BOND ANGLE DIHED IMPRP ELECT VDW BOUNDARY MISC KINETIC TOTAL TEMP POTENTIAL TOTAL3 TEMPAVG PRESSURE GPRESSURE VOLUME PRESSAVG GPRESSAVG
ENERGY: 500000 190.8839 393.8793 581.8755 0.0000 -158955.8184 20050.9036 0.0000 0.0000 25157.6884 -112580.5878 300.8966 -137738.2761 -112569.0809 300.8966 -7.6471 45.6961 425196.1592 -7.6471 45.6961
ENERGY: 600000 180.6360 409.3200 575.3757 0.0000 -158801.3240 20030.4181 0.0000 0.0000 24915.8960 -112689.6782 298.0047 -137605.5742 -112683.4165 299.8652 -63.7588 -6.9786 425034.8359 4.3383 4.2895
ENERGY: 700000 194.8090 416.8547 597.7211 0.0000 -158916.4599 20087.6783 0.0000 0.0000 24940.5054 -112678.8914 298.2990 -137619.3968 -112672.0384 299.7008 17.7625 73.7570 423797.1258 -5.8061 -6.0219
ENERGY: 800000 202.2649 408.2902 582.3797 0.0000 -158944.2556 20078.1009 0.0000 0.0000 25149.0270 -112524.1928 300.7930 -137673.2198 -112506.6474 298.8578 -61.7759 -10.6491 424415.4836 -1.0613 -1.0633
ENERGY: 900000 202.0031 415.8505 564.5351 0.0000 -158551.5231 19853.4537 0.0000 0.0000 25057.0467 -112458.6340 299.6929 -137515.6807 -112442.7728 300.5999 -124.2974 -60.2936 426225.9131 -0.3912 -0.2422
ENERGY: 1000000 204.5406 409.8520 578.1610 0.0000 -158955.8448 19927.8277 0.0000 0.0000 25007.6258 -112827.8376 299.1018 -137835.4634 -112808.3759 299.2230 -108.7178 -56.9998 424144.1755 -8.6346 -8.5466
